Version 4
SHEET 1 880 680
WIRE -112 16 -176 16
WIRE -32 16 -48 16
WIRE -16 16 -32 16
WIRE 320 16 64 16
WIRE -176 32 -176 16
WIRE 160 48 160 -16
WIRE -32 112 -32 16
WIRE 112 112 -32 112
WIRE 320 160 320 16
WIRE 320 160 256 160
WIRE 400 160 320 160
WIRE 112 208 -32 208
WIRE -368 240 -368 -16
WIRE 400 288 400 160
WIRE 208 304 208 272
WIRE -32 336 -32 288
WIRE 160 432 160 272
WIRE 208 432 208 384
WIRE 208 432 160 432
WIRE -368 448 -368 320
WIRE -32 448 -32 416
WIRE 160 448 160 432
WIRE 400 448 400 352
FLAG 160 448 0
FLAG -368 -16 VDD
FLAG -368 448 0
FLAG 160 -16 VDD
FLAG -176 32 0
FLAG 400 448 0
FLAG -32 448 0
SYMBOL cw_opamp 16 160 R0
SYMATTR InstName X1
SYMBOL current 208 304 R0
WINDOW 123 0 0 Left 0
WINDOW 39 0 0 Left 0
SYMATTR InstName I1
SYMATTR Value 10µ
SYMBOL voltage -368 224 R0
WINDOW 123 0 0 Left 0
WINDOW 39 0 0 Left 0
SYMATTR InstName V1
SYMATTR Value 1.8
SYMBOL res 80 0 R90
WINDOW 0 0 56 VBottom 2
WINDOW 3 32 56 VTop 2
SYMATTR InstName R1
SYMATTR Value 10G
SYMBOL cap -48 0 R90
WINDOW 0 0 32 VBottom 2
WINDOW 3 32 32 VTop 2
SYMATTR InstName C1
SYMATTR Value 1µ
SYMBOL cap 384 288 R0
SYMATTR InstName C2
SYMATTR Value 2.3p
SYMBOL voltage -32 192 R0
WINDOW 123 24 124 Left 2
WINDOW 39 0 0 Left 0
SYMATTR InstName V2
SYMATTR Value 0
SYMATTR Value2 AC 1
SYMBOL voltage -32 320 R0
WINDOW 123 0 0 Left 0
WINDOW 39 0 0 Left 0
SYMATTR InstName V3
SYMATTR Value 1.25
TEXT 248 528 Left 2 !.ac dec 1000 1 1G
