Version 4
SHEET 1 3548 680
WIRE 1632 -288 1024 -288
WIRE 1648 -288 1632 -288
WIRE 1840 -288 1648 -288
WIRE 1856 -288 1840 -288
WIRE -128 -272 -144 -272
WIRE 304 -272 -128 -272
WIRE 320 -272 304 -272
WIRE 576 -272 320 -272
WIRE 592 -272 576 -272
WIRE 1648 -240 1648 -288
WIRE 1840 -240 1840 -288
WIRE 1632 -208 1632 -288
WIRE 1648 -208 1632 -208
WIRE 1856 -208 1856 -288
WIRE 1856 -208 1840 -208
WIRE -128 -192 -128 -272
WIRE 304 -192 304 -272
WIRE 592 -192 592 -272
WIRE 1744 -192 1744 -240
WIRE 1744 -192 1712 -192
WIRE 1776 -192 1744 -192
WIRE -144 -160 -144 -272
WIRE -128 -160 -144 -160
WIRE 320 -160 320 -272
WIRE 320 -160 304 -160
WIRE 576 -160 576 -272
WIRE 592 -160 576 -160
WIRE 80 -144 -64 -144
WIRE 240 -144 80 -144
WIRE 752 -144 656 -144
WIRE 768 -144 752 -144
WIRE 1648 -112 1648 -144
WIRE 1648 -112 992 -112
WIRE -64 -96 -64 -144
WIRE -64 -96 -128 -96
WIRE 656 -96 656 -144
WIRE 656 -96 592 -96
WIRE 1840 -80 1840 -144
WIRE 1840 -80 1248 -80
WIRE 992 -48 992 -112
WIRE 1248 -48 1248 -80
WIRE 1648 -48 1648 -112
WIRE 1840 -48 1840 -80
WIRE 1632 -16 1632 -208
WIRE 1648 -16 1632 -16
WIRE 1856 -16 1856 -208
WIRE 1856 -16 1840 -16
WIRE 928 0 880 0
WIRE 1360 0 1312 0
WIRE 1744 0 1744 -16
WIRE 1744 0 1712 0
WIRE 1776 0 1744 0
WIRE 1648 80 1648 48
WIRE 1728 80 1648 80
WIRE 1840 80 1840 48
WIRE 2000 80 1840 80
WIRE 2080 80 2000 80
WIRE 1648 112 1648 80
WIRE 1840 112 1840 80
WIRE 2000 112 2000 80
WIRE 992 160 992 48
WIRE 1120 160 992 160
WIRE 1248 160 1248 48
WIRE 1248 160 1120 160
WIRE 1744 160 1744 144
WIRE 1744 160 1712 160
WIRE 1776 160 1744 160
WIRE 304 176 304 -96
WIRE 368 176 304 176
WIRE 592 176 592 -96
WIRE 368 224 368 176
WIRE 464 224 368 224
WIRE 528 224 464 224
WIRE 1120 256 1120 160
WIRE 1648 256 1648 208
WIRE 1840 256 1840 208
WIRE 1056 304 992 304
WIRE 1728 304 1728 80
WIRE 1728 304 1712 304
WIRE 1776 304 1728 304
WIRE 304 336 304 272
WIRE 592 336 592 272
WIRE 592 336 304 336
WIRE -128 352 -128 -96
WIRE 304 352 304 336
WIRE 1120 384 1120 352
WIRE 1120 384 912 384
WIRE 1648 384 1648 352
WIRE 1648 384 1120 384
WIRE 1840 384 1840 352
WIRE 1840 384 1648 384
WIRE 2000 384 2000 176
WIRE 2000 384 1840 384
FLAG 880 0 Vp
IOPIN 880 0 In
FLAG 1360 0 Vn
IOPIN 1360 0 In
FLAG 1024 -288 Vdd
IOPIN 1024 -288 BiDir
FLAG 2080 80 Vo
IOPIN 2080 80 Out
FLAG 912 384 Vss
IOPIN 912 384 BiDir
FLAG -128 352 Iref
IOPIN -128 352 BiDir
FLAG 1648 320 0
FLAG 1840 320 0
FLAG 1648 176 0
FLAG 1840 176 0
FLAG 1120 320 0
FLAG 304 240 0
FLAG 1744 -240 bias_m9_m10
FLAG 1744 -16 bias_m3_m4
FLAG 1744 144 bias_nmos
FLAG 992 16 0
FLAG 1248 16 0
FLAG -144 -272 Vdd
IOPIN -144 -272 BiDir
FLAG 304 352 Vss
IOPIN 304 352 BiDir
FLAG 992 304 bias_nmos
FLAG 592 240 0
FLAG 80 -144 bias_m9_m10
FLAG 464 224 bias_nmos
FLAG 752 -144 bias_m3_m4
SYMBOL pmos4T -80 -192 M0
SYMATTR InstName M11
SYMATTR Value2 l=0.36u w=1.368u
SYMATTR SpiceLine2 ""
SYMBOL nmos4T 944 -48 R0
SYMATTR InstName M1
SYMATTR Value2 l=0.18u w=23.04u
SYMATTR SpiceLine2 ""
SYMBOL nmos4T 1296 -48 M0
SYMATTR InstName M2
SYMATTR Value2 l=0.18u w=23.04u
SYMATTR SpiceLine2 ""
SYMBOL pmos4T 1696 -48 M0
SYMATTR InstName M3
SYMATTR Value2 l=0.60u w=7.56u
SYMATTR SpiceLine2 ""
SYMBOL pmos4T 1792 -48 R0
SYMATTR InstName M4
SYMATTR Value2 l=0.60u w=7.56u
SYMATTR SpiceLine2 ""
SYMBOL nmos4T 1696 112 M0
SYMATTR InstName M5
SYMATTR Value2 l=0.36u w=1.44u
SYMATTR SpiceLine2 ""
SYMBOL nmos4T 1792 112 R0
SYMATTR InstName M6
SYMATTR Value2 l=0.36u w=1.44u
SYMATTR SpiceLine2 ""
SYMBOL nmos4T 1696 256 M0
SYMATTR InstName M7
SYMATTR Value2 l=0.36u w=1.44u
SYMATTR SpiceLine2 ""
SYMBOL nmos4T 1792 256 R0
SYMATTR InstName M8
SYMATTR Value2 l=0.36u w=1.44u
SYMATTR SpiceLine2 ""
SYMBOL pmos4T 1696 -240 M0
SYMATTR InstName M9
SYMATTR Value2 l=0.36u w=6.84u
SYMATTR SpiceLine2 ""
SYMBOL pmos4T 1792 -240 R0
SYMATTR InstName M10
SYMATTR Value2 l=0.36u w=6.84u
SYMATTR SpiceLine2 ""
SYMBOL nmos4T 1072 256 R0
SYMATTR InstName M12
SYMATTR Value2 l=0.36u w=2.88u
SYMATTR SpiceLine2 ""
SYMBOL pmos4T 256 -192 R0
SYMATTR InstName M13
SYMATTR Value2 l=0.36u w=6.84u
SYMATTR SpiceLine2 ""
SYMBOL nmos4T 352 176 M0
SYMATTR InstName M14
SYMATTR Value2 l=0.36u w=2.88u
SYMATTR SpiceLine2 ""
SYMBOL nmos4T 544 176 R0
SYMATTR InstName M15
SYMATTR Value2 l=0.36u w=2.88u
SYMATTR SpiceLine2 ""
SYMBOL pmos4T 640 -192 M0
SYMATTR InstName M16
SYMATTR Value2 l=0.60u w=3.78u
SYMATTR SpiceLine2 ""
SYMBOL cap 1984 112 R0
SYMATTR InstName C1
SYMATTR Value 0.1p
TEXT 968 536 Left 2 !.INCLUDE C:\\Users\\Danruh\\OneDrive\\Documents\\EEE\\Yr 4\\AMS CMOS IC Design\\current\\EL6232_CMOS_18_35.lib
TEXT -168 -360 Left 2 ;Biasing circuit
