Version 4
SHEET 1 880 680
WIRE 112 -128 -240 -128
WIRE 352 -64 -64 -64
WIRE 112 0 112 -128
WIRE -64 64 -64 -64
WIRE 0 64 -64 64
WIRE 64 64 0 64
WIRE -240 96 -240 -128
WIRE 288 112 208 112
WIRE 352 112 352 -64
WIRE 352 112 288 112
WIRE 0 160 -64 160
WIRE 64 160 0 160
WIRE -64 208 -64 160
WIRE 160 240 160 224
WIRE -240 320 -240 176
WIRE -64 320 -64 288
WIRE -64 320 -240 320
WIRE -240 336 -240 320
WIRE 112 336 112 224
WIRE 160 336 160 320
WIRE 160 336 112 336
WIRE 160 352 160 336
FLAG 160 352 0
FLAG -240 336 0
FLAG 0 160 VREF_in
FLAG 288 112 VREF_out
FLAG 0 64 V_feedback
SYMBOL current 160 240 R0
WINDOW 123 0 0 Left 0
WINDOW 39 0 0 Left 0
SYMATTR InstName I1
SYMATTR Value 10µ
SYMBOL voltage -240 80 R0
WINDOW 123 0 0 Left 0
WINDOW 39 0 0 Left 0
SYMATTR InstName V1
SYMATTR Value 1.8
SYMBOL voltage -64 192 R0
WINDOW 123 0 0 Left 0
WINDOW 39 0 0 Left 0
SYMATTR InstName V2
SYMATTR Value 1.25
SYMBOL cw_opamp -32 112 R0
SYMATTR InstName X1
TEXT 336 184 Left 2 !.op
TEXT 336 216 Left 2 ;.dc lin V2 0 1.8 0.001
