Version 4
SHEET 1 1760 680
WIRE 352 -32 0 -32
WIRE 128 32 128 -128
WIRE 896 32 896 0
WIRE 0 96 0 -32
WIRE 80 96 0 96
WIRE 480 96 480 80
WIRE 896 128 896 112
WIRE -464 144 -464 -128
WIRE 288 144 224 144
WIRE 352 144 352 -32
WIRE 352 144 288 144
WIRE 704 160 544 160
WIRE 0 192 -208 192
WIRE 80 192 0 192
WIRE 352 208 352 144
WIRE 544 208 544 160
WIRE 704 208 704 160
WIRE -208 224 -208 192
WIRE 416 224 416 80
WIRE 416 224 400 224
WIRE 480 224 480 160
WIRE 496 224 480 224
WIRE 176 288 176 256
WIRE -208 320 -208 304
WIRE 352 320 352 288
WIRE 448 320 352 320
WIRE 544 320 544 288
WIRE 544 320 448 320
WIRE 448 336 448 320
WIRE 128 400 128 256
WIRE 176 400 176 368
WIRE 176 400 128 400
WIRE -464 416 -464 224
WIRE -208 416 -208 400
WIRE 128 416 128 400
WIRE 448 416 448 400
WIRE 704 416 704 288
FLAG 128 416 0
FLAG -464 416 0
FLAG -464 -128 VDD
FLAG 128 -128 VDD
FLAG -208 416 0
FLAG 288 144 Vref_out
FLAG 0 192 Vref_in
FLAG 400 272 0
FLAG 496 272 0
FLAG 896 128 0
FLAG 448 416 0
FLAG 896 0 fsample
FLAG 704 416 0
FLAG 480 80 fsample
FLAG 416 80 fsample
FLAG 448 320 Vc
SYMBOL current 176 288 R0
WINDOW 123 0 0 Left 0
WINDOW 39 0 0 Left 0
SYMATTR InstName I1
SYMATTR Value 10µ
SYMBOL voltage -464 128 R0
WINDOW 123 0 0 Left 0
WINDOW 39 0 0 Left 0
SYMATTR InstName V1
SYMATTR Value 1.8
SYMBOL voltage -208 304 R0
WINDOW 123 0 0 Left 0
WINDOW 39 0 0 Left 0
SYMATTR InstName V2
SYMATTR Value 1.25
SYMBOL res -224 208 R0
SYMATTR InstName R1
SYMATTR Value 10k
SYMBOL cap 432 336 R0
SYMATTR InstName C1
SYMATTR Value 2.3p
SYMBOL cw_opamp -16 144 R0
SYMATTR InstName X1
SYMBOL sw 352 304 R180
SYMATTR InstName S1
SYMATTR Value MYSWITCH
SYMBOL sw 544 304 M180
SYMATTR InstName S2
SYMATTR Value MYSWITCH
SYMBOL voltage 896 16 R0
WINDOW 123 0 0 Left 0
WINDOW 39 0 0 Left 0
SYMATTR InstName V3
SYMATTR Value PULSE(0 1 0 1.875n 1.875n 30n 62.5n)
SYMBOL voltage 704 192 R0
WINDOW 123 0 0 Left 0
WINDOW 39 0 0 Left 0
SYMATTR InstName V4
SYMATTR Value 1
SYMBOL Digital\\inv 544 96 R90
SYMATTR InstName A1
TEXT 784 336 Left 2 !.ic V(Vc) 1
TEXT 416 512 Left 2 !.MODEL MYSWITCH SW(Ron=1 Roff=10G Vt=0.1)
TEXT 784 312 Left 2 !.tran 1u
