Version 4
SHEET 1 880 680
WIRE 352 -32 0 -32
WIRE 128 32 128 -128
WIRE 0 96 0 -32
WIRE 80 96 0 96
WIRE -464 144 -464 -128
WIRE 288 144 224 144
WIRE 352 144 352 -32
WIRE 352 144 288 144
WIRE 352 176 352 144
WIRE 0 192 -208 192
WIRE 80 192 0 192
WIRE -208 224 -208 192
WIRE 176 288 176 256
WIRE 352 288 352 240
WIRE -208 320 -208 304
WIRE 128 400 128 256
WIRE 176 400 176 368
WIRE 176 400 128 400
WIRE -464 416 -464 224
WIRE -208 416 -208 400
WIRE 128 416 128 400
FLAG 128 416 0
FLAG -464 416 0
FLAG -464 -128 VDD
FLAG 128 -128 VDD
FLAG -208 416 0
FLAG 352 288 0
FLAG 288 144 Vref_out
FLAG 0 192 Vref_in
SYMBOL cw_opamp -16 144 R0
SYMATTR InstName X1
SYMBOL current 176 288 R0
WINDOW 123 0 0 Left 0
WINDOW 39 0 0 Left 0
SYMATTR InstName I1
SYMATTR Value 10µ
SYMBOL voltage -464 128 R0
WINDOW 123 0 0 Left 0
WINDOW 39 0 0 Left 0
SYMATTR InstName V1
SYMATTR Value 1.8
SYMBOL voltage -208 304 R0
WINDOW 123 0 0 Left 0
WINDOW 39 0 0 Left 0
SYMATTR InstName V2
SYMATTR Value 1.25
SYMBOL res -224 208 R0
SYMATTR InstName R1
SYMATTR Value 10k
SYMBOL cap 336 176 R0
SYMATTR InstName C1
SYMATTR Value 2.3p
TEXT 464 72 Left 2 !.ic V(Vref_out) 1
TEXT 464 104 Left 2 !.tran 70n
